Circuit: * C:\home\Dropbox\ROBO\project_kagura3.0\circuit\sim\Draft1.asc

WARNING: Less than two connections to node VCC.  This node is used by V1.
Direct Newton iteration failed to find .op point.  (Use ".option noopiter" to skip.)
Starting Gmin stepping
Gmin = 10
Gmin = 1.07374
Gmin = 0.115292
Gmin = 0.0123794
Gmin = 0.00132923
Gmin = 0.000142725
Gmin = 1.5325e-005
Gmin = 1.6455e-006
vernier = 0.5
vernier = 0.666667
Gmin = 5.00922e-007
vernier = 0.888888
Gmin = 8.49738e-008
vernier = 1
Gmin = 9.33136e-009
Gmin = 1.00195e-009
Gmin = 1.07583e-010
Gmin = 1.15517e-011
Gmin = 1.24035e-012
Gmin = 1.33182e-013
Gmin = 0
Gmin stepping succeeded in finding the operating point.


Date: Fri Sep 13 00:06:58 2019
Total elapsed time: 0.156 seconds.

tnom = 27
temp = 27
method = modified trap
totiter = 2607
traniter = 2104
tranpoints = 1053
accept = 1050
rejected = 3
matrix size = 18
fillins = 9
solver = Alternate
Matrix Compiler1: 1.02 KB object code size  0.5/0.3/[0.2]
Matrix Compiler2: 1.74 KB object code size  0.5/0.6/[0.4]

